32
Revlimid_B
H -5.99984112 10.81607522 12.06499393
C -3.91459729 8.45071346 12.19948147
N -3.37277432 5.78959790 13.62628299
C -1.18098668 6.66148099 14.17549631
H -6.33327052 12.39402314 10.42915346
H 0.14138443 9.54792216 13.45814004
H -7.49751345 11.35988778 10.26959197
C -0.24226381 7.67644918 14.14398627
H 0.57568915 7.55319986 14.56970705
O -1.71944245 11.19250941 11.82565170
H -4.06874516 5.84152754 13.07331527
C -5.83296495 10.53703697 11.15026412
H -3.06803278 4.95894650 13.78396728
C -4.34463797 10.57470268 10.85983539
O -6.84034179 11.66968264 7.82696033
C -2.28052966 10.14143562 12.11608042
H -4.10045768 7.87636716 11.44015650
C -6.53883590 11.48023974 10.18096159
C -4.09026508 10.14700747 9.42793863
H -4.78880011 10.48845044 7.64822465
H -4.68716623 8.46475452 12.78637276
C -2.68394426 8.01009156 12.92756457
O -3.15061555 9.45854969 9.09607755
C -0.49423880 8.87038520 13.49259996
N -3.54588964 9.79553517 11.77255392
N -4.99436899 10.60278480 8.49792310
C -6.15907888 11.27385842 8.75590319
H -4.05437703 11.50698462 10.94135924
H -0.97593650 5.86827242 14.61663690
C -2.42619862 6.79475964 13.56326290
H -6.16979853 9.63484302 11.03924150
C -1.73387891 9.00968145 12.89417733